*Heading
** Job name: master_file Model name: Model-1
** Generated by: Abaqus/CAE 2020
*Preprint, echo=NO, model=NO, history=NO, contact=NO
**
** PARTS
**
*Part, name=Part-1
*End Part
**  
**
** ASSEMBLY
**
*Assembly, name=Assembly
**  
*Instance, name=Part-1-1, part=Part-1
*Node
      1,          25.,          20.,         100.
      2,          25.,    11.666667,         100.
      3,          25.,   3.33333325,         100.
      4,          25.,          -5.,         100.
      5,          25.,          20.,          90.
      6,          25.,    11.666667,          90.
      7,          25.,   3.33333325,          90.
      8,          25.,          -5.,          90.
      9,          25.,          20.,          80.
     10,          25.,    11.666667,          80.
     11,          25.,   3.33333325,          80.
     12,          25.,          -5.,          80.
     13,          25.,          20.,          70.
     14,          25.,    11.666667,          70.
     15,          25.,   3.33333325,          70.
     16,          25.,          -5.,          70.
     17,          25.,          20.,          60.
     18,          25.,    11.666667,          60.
     19,          25.,   3.33333325,          60.
     20,          25.,          -5.,          60.
** ... 244 like lines cut
*Element, type=C3D8R
  1,  45,  46,  50,  49,   1,   2,   6,   5
  2,  46,  47,  51,  50,   2,   3,   7,   6
  3,  47,  48,  52,  51,   3,   4,   8,   7
  4,  49,  50,  54,  53,   5,   6,  10,   9
  5,  50,  51,  55,  54,   6,   7,  11,  10
  6,  51,  52,  56,  55,   7,   8,  12,  11
  7,  53,  54,  58,  57,   9,  10,  14,  13
  8,  54,  55,  59,  58,  10,  11,  15,  14
  9,  55,  56,  60,  59,  11,  12,  16,  15
 10,  57,  58,  62,  61,  13,  14,  18,  17
 11,  58,  59,  63,  62,  14,  15,  19,  18
 12,  59,  60,  64,  63,  15,  16,  20,  19
 13,  61,  62,  66,  65,  17,  18,  22,  21
 14,  62,  63,  67,  66,  18,  19,  23,  22
 15,  63,  64,  68,  67,  19,  20,  24,  23
 16,  65,  66,  70,  69,  21,  22,  26,  25
 17,  66,  67,  71,  70,  22,  23,  27,  26
 18,  67,  68,  72,  71,  23,  24,  28,  27
 19,  69,  70,  74,  73,  25,  26,  30,  29
 20,  70,  71,  75,  74,  26,  27,  31,  30
** ... 130 like lines cut
*Nset, nset=Set-1, generate
   1,  264,    1
*Elset, elset=Set-1, generate
   1,  150,    1
** Section: Section-1
*Solid Section, elset=Set-1, material=Material-1
,
*End Instance
**  
*Nset, nset=disp, instance=Part-1-1
 44,
*Nset, nset=fixed, instance=Part-1-1
   1,   2,   3,   4,  45,  46,  47,  48,  89,  90,  91,  92, 133, 134, 135, 136
 177, 178, 179, 180, 221, 222, 223, 224
*Elset, elset=fixed, instance=Part-1-1
   1,   2,   3,  31,  32,  33,  61,  62,  63,  91,  92,  93, 121, 122, 123
*Nset, nset=load, instance=Part-1-1
  44, 264
*End Assembly
** 
** MATERIALS
** 
*Material, name=Material-1
*Elastic
210000., 0.25
** ----------------------------------------------------------------
** 
** STEP: Step-1
** 
*Step, name=Step-1, nlgeom=YES
*Static
1., 1., 1e-05, 1.
** 
** BOUNDARY CONDITIONS
** 
** Name: fixed Type: Symmetry/Antisymmetry/Encastre
*Boundary
fixed, ENCASTRE
** 
** LOADS
** 
** Name: Load-1   Type: Concentrated force
*Cload
load, 2, -50000.
** 
** OUTPUT REQUESTS
** 
*Restart, write, frequency=0
** 
** FIELD OUTPUT: F-Output-1
** 
*Output, field, variable=PRESELECT
** 
** HISTORY OUTPUT: H-Output-1
** 
*Output, history
*Energy Output
ALLIE, ALLSE
** 
** HISTORY OUTPUT: disp_hisory
** 
*Node Output, nset=disp
U2, 
*End Step
